218
Properties=species:S:1:pos:R:3 energy=-175825.69500167703 pbc="F F F"
Ba      22.45640400      10.74377900       5.21127800
Ba      26.26105700      32.30378000       6.86304500
C       22.47529800      18.82619300       4.36849000
C       21.98111700      24.29380600       8.39326500
C       26.24216300      18.82619300       7.70583300
C       26.73634300      24.29380600       3.68105900
H       21.89149700      18.10190600       4.40773200
H       21.39731800      25.01809300       8.43250600
H       26.82596200      18.10190600       7.66659200
H       27.32014300      25.01809300       3.64181700
C       23.38356600      16.30798300       3.20613500
C       22.88938500      26.81201600       7.23091000
C       25.33389500      16.30798300       8.86818800
C       25.82807400      26.81201600       4.84341400
H       22.67906400      16.66051100       2.71446100
H       22.18488300      26.45948800       6.73923500
H       26.03839700      16.66051100       9.35986300
H       26.53257600      26.45948800       5.33508800
O       15.80959900      19.65840700       6.56923700
O       15.31541900      23.46159200      10.59401100
O       27.86541900      34.24159200      10.59401100
O       20.35786100       8.87840800       5.50508700
O       32.90786000      19.65840700       5.50508700
O       28.35960000      30.43840800       6.56923700
O       20.85204100      12.68159200       1.48031200
O       33.40204200      23.46159200       1.48031200
C       17.74001300      20.25130800       5.34087600
C       17.24583200      22.86869000       9.36565000
C       29.79583400      33.64868900       9.36565000
C       18.42744600       9.47130800       6.73344800
C       30.97744800      20.25130800       6.73344800
C       30.29001200      31.03130700       5.34087600
C       18.92162700      12.08869200       2.70867300
C       31.47162600      22.86869000       2.70867300
C       16.26916700      20.34832800       5.60651100
C       15.77498700      22.77167100       9.63128500
C       28.32498700      33.55167000       9.63128500
C       19.89829300       9.56832800       6.46781300
C       32.44829200      20.34832800       6.46781300
C       28.81916800      31.12832600       5.60651100
C       20.39247300      11.99167200       2.44303800
C       32.94247400      22.77167100       2.44303800
C       18.56082700      19.38243900       6.03555200
C       18.06664700      23.73756000      10.06032600
C       30.15663300      19.38243900       6.03877100
C       30.65081200      23.73756000       2.01399700
H       18.18458600      18.81664100       6.67186100
H       17.69040700      24.30335800      10.69663500
H       30.53287300      18.81664100       5.40246300
H       31.02705400      24.30335800       1.37768800
C       23.56005700      14.96048400       3.19969600
C       23.06587800      28.15951500       7.22447000
C       25.15740400      14.96048400       8.87462800
C       25.65158500      28.15951500       4.84985300
H       23.01494200      14.41283800       2.68203700
H       22.52076100      28.70716100       6.70681200
H       25.70251800      14.41283800       9.39228600
H       26.19669700      28.70716100       5.36751200
C       19.68048700      21.05549400       4.17369100
C       19.18630600      22.06450500       8.19846500
C       29.03697400      21.05549400       7.90063300
C       29.53115500      22.06450500       3.87585800
H       20.03410700      21.60710700       3.51309700
H       19.53992700      21.51289200       7.53787100
H       28.68335300      21.60710700       8.56122700
H       29.17753200      21.51289200       4.53645200
C       22.80143700      21.18916900       4.49245300
C       22.30725700      21.93083200       8.51722800
C       25.91602300      21.18916900       7.58187000
C       26.41020400      21.93083200       3.55709600
C       24.53901700      23.42925300       4.16000700
C       24.04483600      19.69074600       8.18478100
C       24.17844600      23.42925300       7.91431700
C       24.67262500      19.69074600       3.88954200
C       21.98183100      20.10254300       4.62607600
C       21.48765000      23.01745600       8.65085000
C       26.73563000      20.10254300       7.44824800
C       27.22981100      23.01745600       3.42347300
O       15.64254900      21.22797600       5.02694300
O       15.14836900      21.89202300       9.05171800
O       27.69836800      32.67202400       9.05171800
O       20.52491200      10.44797600       7.04738000
O       33.07490900      21.22797600       7.04738000
O       28.19254900      32.00797700       5.02694300
O       21.01909100      11.11202400       3.02260600
O       33.56909200      21.89202300       3.02260600
C       25.03629700      22.13780800       3.95313400
C       24.54211600      20.98219100       7.97790800
C       23.68116400      22.13780800       8.12119000
C       24.17534400      20.98219100       4.09641500
C       24.57823200      14.41286000       3.98372200
C       24.08405100       7.14714000       8.00849600
C       24.57823200      35.97285800       3.98372200
C       24.08405100      28.70713800       8.00849600
C       24.63341000       7.14714000       4.06582700
C       24.13923100      14.41286000       8.09060200
C       24.63341000      28.70713800       4.06582700
C       24.13923100      35.97285800       8.09060200
C       23.79847000      18.59981200       4.05858200
C       23.30428900      24.52018700       8.08335700
C       24.91899100      18.59981200       8.01574100
C       25.41317200      24.52018700       3.99096700
C       23.20129400      23.59310700       4.62929600
C       22.70711300      19.52689200       8.65407000
C       25.51616700      23.59310700       7.44502800
C       26.01034500      19.52689200       3.42025300
H       22.88060800      24.44634400       4.81866900
H       22.38642700      18.67365500       8.84344400
H       25.83685300      24.44634400       7.25565400
H       26.33103400      18.67365500       3.23088000
C       25.45809900      15.27957200       4.68805800
C       24.96391900      27.84042700       8.71283200
C       23.25936100      15.27957200       7.38626600
C       23.75354200      27.84042700       3.36149100
H       26.16856200      14.93282200       5.17718000
H       25.67438100      28.18717800       9.20195400
H       22.54889900      14.93282200       6.89714300
H       23.04307900      28.18717800       2.87236900
C       18.35389500      21.09430300       4.42966700
C       17.85971600      22.02569600       8.45444100
C       30.36356500      21.09430300       7.64465700
C       30.85774400      22.02569600       3.61988200
H       17.83105300      21.71367800       3.97327400
H       17.33687200      21.40632100       7.99804800
H       30.88640800      21.71367800       8.10105000
H       31.38058900      21.40632100       4.07627500
C       24.74989700      12.95971600       4.07790200
C       24.25571600       8.60028400       8.10267600
C       24.74989700      34.51971400       4.07790200
C       24.25571600      30.16028200       8.10267600
C       24.46174400       8.60028400       3.97164700
C       23.96756400      12.95971600       7.99642200
C       24.46174400      30.16028200       3.97164700
C       23.96756400      34.51971400       7.99642200
C       20.53859300      20.19740900       4.89171100
C       20.04441500      22.92259000       8.91648500
C       28.17886500      20.19740900       7.18261300
C       28.67304600      22.92259000       3.15783800
C       25.24354600      16.63353900       4.63654000
C       24.74936500      26.48646000       8.66131400
C       23.47391500      16.63353900       7.43778300
C       23.96809600      26.48646000       3.41300900
H       25.81348400      17.20242100       5.10267300
H       25.31930400      25.91757800       9.12744800
H       22.90397600      17.20242100       6.97165000
H       23.39815500      25.91757800       2.94687600
C       22.39722100      22.53019900       4.79994600
C       21.90304200      20.58980000       8.82472100
C       26.32023800      22.53019900       7.27437700
C       26.81441900      20.58980000       3.24960300
H       21.54114700      22.66977900       5.13366400
H       21.04696800      20.45022000       9.15843900
H       27.17631100      22.66977900       6.94065900
H       27.67049200      20.45022000       2.91588500
O       24.05300300      12.20727200       3.29387600
O       23.55882300       9.35272800       7.31865000
O       24.05300300      33.76726900       3.29387600
O       23.55882300      30.91272700       7.31865000
O       25.15863600       9.35272800       4.75567300
O       24.66445700      12.20727200       8.78044800
O       25.15863600      30.91272700       4.75567300
O       24.66445700      33.76726900       8.78044800
O       25.60051500      12.48755200       4.81604500
O       25.10633500       9.07244800       8.84081900
O       25.60051500      34.04755000       4.81604500
O       25.10633500      30.63244600       8.84081900
O       23.61112600       9.07244800       3.23350400
O       23.11694500      12.48755200       7.25827800
O       23.61112600      30.63244600       3.23350400
O       23.11694500      34.04755000       7.25827800
C       19.91850500      19.32638400       5.81257900
C       19.42432600      23.79361500       9.83735400
C       28.79895600      19.32638400       6.26174400
C       29.29313500      23.79361500       2.23696900
H       20.43310000      18.70791200       6.27687700
H       19.93891900      24.41208600      10.30165200
H       28.28436100      18.70791200       5.79744600
H       28.77854200      24.41208600       1.77267200
C       24.18961700      17.17254100       3.89839600
C       23.69543600      25.94745800       7.92317100
C       24.52784300      17.17254100       8.17592700
C       25.02202200      25.94745800       4.15115200
H       18.12447500       8.42433700       6.74609900
H       18.19714000       9.92970100       7.69518300
H       17.87371700       9.99578600       5.95472700
H       24.55026900       6.77722600       7.09531100
H       24.56017800       6.66625800       8.86298800
H       23.02167900       6.90339100       8.00112300
H       23.68132000       6.64649700       3.88980300
H       25.36365200       6.81842300       3.32637100
H       24.99933700       6.88168800       5.05766200
H       18.58288500      13.10346500       2.49989400
H       18.38814800      11.37843400       2.07698100
H       18.74251900      11.85539500       3.75824100
H       14.38896800      23.24230100      10.71729600
H       15.59704200      18.77729100       6.25292600
H       33.16506700      23.05026000       0.64590000
H       32.47246400      18.80282700       5.50207300
H       24.19760600      36.23193800       2.99574400
H       23.86282300      36.31004000       4.73378800
H       25.53364100      36.46772300       4.15808400
H       23.16015700      36.45139300       8.11336200
H       24.70560000      36.32677200       7.22916600
H       24.67473300      36.21114300       9.00960000
H       29.94946200      34.11639900       8.39315500
H       30.23652000      32.65179000       9.37501300
H       30.26816500      34.25105800      10.14163700
H       30.54837600      30.00703600       5.07214300
H       30.84802200      31.31560000       6.23301000
H       30.55447100      31.70971300       4.52974900
H       23.51078400      30.07303300       2.45982200
H       24.63709200      33.22575100       2.75797200
H       26.91923500      34.09462400      10.66277600
H       20.58782700      12.28781100       0.64561200
H       25.71096300       9.61151200       8.32561700
H       24.17046100      11.40996500       8.98506200
H       23.52827400      33.47716300       6.60477400
H       25.60623900      11.53085700       4.73668100